Version 4.1
SHEET 1 880 680
WIRE 272 -64 144 -64
WIRE 272 -48 272 -64
WIRE 144 -32 144 -64
WIRE 224 16 144 16
WIRE 96 48 0 48
WIRE 224 48 224 16
WIRE 0 64 0 48
WIRE 144 80 144 64
FLAG 0 144 0
FLAG 272 32 0
FLAG 144 80 0
FLAG 224 128 0
SYMBOL voltage 0 48 R0
WINDOW 123 0 0 Left 0
WINDOW 39 0 0 Left 0
SYMATTR InstName V_GS
SYMATTR Value 0
SYMBOL voltage 272 -64 R0
WINDOW 123 0 0 Left 0
WINDOW 39 0 0 Left 0
SYMATTR InstName V_DS
SYMATTR Value 1
SYMBOL nmos4 96 -32 R0
SYMATTR InstName M1
SYMATTR Value n18.1
SYMATTR Value2 l={2*lambda} w={Wn} ad={5*lambda*Wn} as={5*lambda*Wn} pd={2*Wn + 10*lambda} ps={2*Wn + 10*lambda}
SYMBOL voltage 224 144 R180
WINDOW 0 -32 56 VBottom 2
WINDOW 3 32 56 VTop 2
WINDOW 123 0 0 Left 0
WINDOW 39 0 0 Left 0
SYMATTR InstName V_SB
SYMATTR Value {vsb}
TEXT -8 200 Left 2 !.dc V_GS 0 0.9 0.01
TEXT -8 264 Left 2 !.param lambda=0.09u Wn=0.5u
TEXT -8 232 Left 2 !.lib 'ts18sl_scl.lib' tt_18
TEXT 400 160 Left 2 !.step param vsb list 0 0.9 -0.9
